NodeBoard
*SPICE Netlist generated by Advanced Sim server on 3/8/2019 10:20:18 PM

*Schematic Netlist:

.SAVE 0


*Selected Circuit Analyses:
.TRAN 2E-8 5E-6 0 2E-8
.OP

.END
