NodeBoard
*SPICE Netlist generated by Advanced Sim server on 3/23/2019 11:12:36 AM

*Schematic Netlist:

.SAVE 0


*Selected Circuit Analyses:
.TRAN 2E-8 5E-6 0 2E-8
.OP

.END
